.include TSMC_180nm.txt
*subcircuit for NOT 
.subckt NOT input output vdd gnd
M_n output input gnd gnd CMOSN W = {w} L = {l} 
+ AS = {5*w*lambda} PS = {10*lambda + 2*w} AD = {5*w*lambda} PD = {10*lambda + 2*w}

M_p output input vdd vdd CMOSP W = {w} L = {l} 
+ AS = {5*w*lambda} PS = {10*lambda + 2*w} AD = {5*w*lambda} PD = {10*lambda + 2*w}
.ends NOT